test/fixtures/opendss/component_line_parity.dss
Clear
New Circuit.line_parity BasekV=12.47 pu=1.0 phases=3 bus1=src.1.2.3

New LineCode.lc1 nphases=3 units=kft basefreq=60
~ rmatrix=[0.381 0.032 0.028 | 0.032 0.371 0.029 | 0.028 0.029 0.366]
~ xmatrix=[0.745 0.312 0.304 | 0.312 0.732 0.315 | 0.304 0.315 0.729]
~ cmatrix=[4.10 -0.95 -0.91 | -0.95 4.05 -0.94 | -0.91 -0.94 4.00]

New Line.l1 phases=3 bus1=src.1.2.3 bus2=n1.1.2.3 linecode=lc1 length=0.85
New Load.anchor phases=3 bus1=n1.1.2.3 conn=wye kv=12.47 kW=15 kvar=5 model=1

Solve
